Version 4
SHEET 1 1724 1268
WIRE 16 -576 -432 -576
WIRE 144 -576 16 -576
WIRE 144 -512 144 -576
WIRE -64 -432 -176 -432
WIRE 48 -432 16 -432
WIRE 96 -432 48 -432
WIRE -176 -400 -176 -432
WIRE -432 -352 -432 -576
WIRE -176 -288 -176 -320
WIRE 96 -288 -176 -288
WIRE 144 -288 144 -416
WIRE 144 -288 96 -288
WIRE 144 -240 144 -288
WIRE 304 -240 144 -240
WIRE 592 -240 384 -240
WIRE 704 -240 592 -240
WIRE 752 -240 704 -240
WIRE 592 -176 592 -240
WIRE 752 -176 752 -240
WIRE 144 -160 144 -240
WIRE -64 -64 -208 -64
WIRE 592 -48 592 -112
WIRE 672 -48 592 -48
WIRE 752 -48 752 -96
WIRE 752 -48 672 -48
WIRE -208 -32 -208 -64
WIRE -432 -16 -432 -272
WIRE 144 -16 144 -96
WIRE 672 -16 672 -48
WIRE -208 64 -208 48
WIRE -304 96 -336 96
WIRE -96 96 -304 96
WIRE -64 96 -64 -64
WIRE 80 112 -32 112
WIRE 128 112 80 112
WIRE -336 128 -336 96
WIRE -96 128 -208 128
WIRE -64 192 -64 128
WIRE -208 224 -208 128
WIRE -336 256 -336 208
WIRE -336 368 -336 336
WIRE -208 368 -208 304
FLAG -432 -16 0
FLAG 48 -432 gate
FLAG 672 -16 0
FLAG 704 -240 out
FLAG 144 -16 0
FLAG 16 -576 dc
FLAG -336 368 0
FLAG -208 368 0
FLAG 96 -288 source
FLAG -64 192 0
FLAG -208 64 0
FLAG 80 112 pwm
FLAG -304 96 in
SYMBOL voltage -432 -368 R0
WINDOW 123 0 0 Left 2
WINDOW 39 0 0 Left 2
SYMATTR InstName V1
SYMATTR Value 10
SYMBOL nmos 96 -512 R0
SYMATTR InstName M1
SYMATTR Value IRFZ48N
SYMBOL res -80 -416 R270
WINDOW 0 32 56 VTop 2
WINDOW 3 0 56 VBottom 2
SYMATTR InstName R2
SYMATTR Value 10
SYMBOL schottky 160 -96 R180
WINDOW 0 88 53 Left 2
WINDOW 3 55 22 Left 2
SYMATTR InstName D1
SYMATTR Value MBR735
SYMATTR Description Diode
SYMATTR Type diode
SYMBOL cap 576 -176 R0
SYMATTR InstName C1
SYMATTR Value 10µ
SYMATTR SpiceLine Rser=0.15
SYMBOL res 736 -192 R0
SYMATTR InstName R8
SYMATTR Value 1
SYMBOL ind 288 -224 R270
WINDOW 0 32 56 VTop 2
WINDOW 3 5 56 VBottom 2
SYMATTR InstName L1
SYMATTR Value 50µ
SYMATTR SpiceLine Rser=0.05
SYMBOL voltage -208 208 M0
WINDOW 123 0 0 Left 0
WINDOW 39 0 0 Left 0
WINDOW 3 -383 72 Left 2
WINDOW 0 -94 40 Left 2
SYMATTR Value PULSE(0 10 0 4.8u 0.2u 0 5u)
SYMATTR InstName Vsw
SYMBOL voltage -336 240 M0
WINDOW 123 0 0 Left 0
WINDOW 39 0 0 Left 0
WINDOW 0 38 41 Left 2
WINDOW 3 48 70 Left 2
SYMATTR InstName Vduty
SYMATTR Value 5.4
SYMBOL MyComparator -64 112 R0
WINDOW 0 13 26 Left 2
SYMATTR InstName U1
SYMBOL voltage -208 -48 R0
WINDOW 123 0 0 Left 0
WINDOW 39 0 0 Left 0
SYMATTR InstName V2
SYMATTR Value 15
SYMBOL Misc\\Epoly -176 -416 R0
WINDOW 3 12 97 Left 2
SYMATTR Value value={V(pwm)}
SYMATTR InstName Edriver
SYMBOL voltage -336 112 R0
WINDOW 0 -100 58 Left 2
WINDOW 3 -214 100 Left 2
WINDOW 123 0 0 Left 0
WINDOW 39 0 0 Left 0
SYMATTR InstName Vsin
SYMATTR Value SINE(0 1 {Freq})
TEXT 464 -104 Left 2 ;ESR=0.15
TEXT 304 -192 Left 2 ;ESR=0.05
TEXT -160 312 Left 2 ;sawtooth
TEXT 248 184 Left 2 !.measure Aavg              avg       V(out)                                                                ; average output voltage\n.measure Bavg              avg       V(in)                                                                   ; average input signal\n.measure Are                  avg       2*(V(out)-Aavg)*cos(360*Freq*time)      ; A real part\n.measure Aim                 avg       2*(V(out)-Aavg)*sin(360*Freq*time)        ; A imag part\n.measure Bre                  avg       2*(V(in)-Bavg)*cos(360*Freq*time)         ; B real part\n.measure Bim                 avg        2*(V(in)-Bavg)*sin(360*Freq*time)          ; B imag part\n.measure Amag             param   hypot(Are,Aim)                                              ; A magnitude\n.measure Bmag             param   hypot(Bre,Bim)                                              ; B magnitude\n.measure Aphi                param   atan2(Aim, Are)                                             ; A phase\n.measure Bphi                param   atan2(Bim, Bre)                                             ; B phase\n.measure GainMag       param    20*log10(Amag/Bmag)                              ; Gain magnitude\n.measure GainPhi          param    Bphi - Aphi                                                       ; Gain phase
TEXT 680 56 Left 2 !.save V(out) V(in)\n.option numdgt=15   ; double precision for data\n.option nomarch       ; do not plot marching waveforms
TEXT 200 64 Left 2 !.step dec param Freq 100 200k 10
TEXT 336 -376 Left 2 !.param t0=1m\n.tran 0 {t0+5/Freq} {t0} 0.1u
