Version 4
SHEET 1 1724 1268
WIRE 16 -656 -416 -656
WIRE 144 -656 16 -656
WIRE 144 -592 144 -656
WIRE -64 -512 -176 -512
WIRE 48 -512 16 -512
WIRE 96 -512 48 -512
WIRE -176 -480 -176 -512
WIRE -416 -432 -416 -656
WIRE -176 -368 -176 -400
WIRE 96 -368 -176 -368
WIRE 144 -368 144 -496
WIRE 144 -368 96 -368
WIRE 144 -320 144 -368
WIRE 304 -320 144 -320
WIRE 592 -320 384 -320
WIRE 688 -320 592 -320
WIRE 752 -320 688 -320
WIRE 592 -256 592 -320
WIRE 752 -256 752 -320
WIRE 144 -240 144 -320
WIRE 592 -128 592 -192
WIRE 672 -128 592 -128
WIRE 752 -128 752 -176
WIRE 752 -128 672 -128
WIRE -416 -96 -416 -352
WIRE 144 -96 144 -176
WIRE 672 -96 672 -128
WIRE -64 -80 -176 -80
WIRE -176 -48 -176 -80
WIRE -176 48 -176 32
WIRE -96 96 -304 96
WIRE -64 96 -64 -80
WIRE 80 112 -32 112
WIRE 128 112 80 112
WIRE -96 128 -176 128
WIRE -304 176 -304 96
WIRE -176 176 -176 128
WIRE -64 176 -64 128
WIRE -304 320 -304 256
WIRE -176 320 -176 256
FLAG -416 -96 0
FLAG 48 -512 gate
FLAG 672 -96 0
FLAG 688 -320 out
FLAG 144 -96 0
FLAG 16 -656 dc
FLAG -304 320 0
FLAG -176 320 0
FLAG 96 -368 source
FLAG -64 176 0
FLAG -176 48 0
FLAG 80 112 pwm
SYMBOL voltage -416 -448 R0
WINDOW 123 0 0 Left 2
WINDOW 39 0 0 Left 2
SYMATTR InstName V1
SYMATTR Value 10
SYMBOL nmos 96 -592 R0
SYMATTR InstName M1
SYMATTR Value IRFZ48N
SYMBOL res -80 -496 R270
WINDOW 0 32 56 VTop 2
WINDOW 3 0 56 VBottom 2
SYMATTR InstName R2
SYMATTR Value 10
SYMBOL schottky 160 -176 R180
WINDOW 0 88 53 Left 2
WINDOW 3 55 22 Left 2
SYMATTR InstName D1
SYMATTR Value MBR735
SYMATTR Description Diode
SYMATTR Type diode
SYMBOL cap 576 -256 R0
WINDOW 0 -57 7 Left 2
WINDOW 3 -60 42 Left 2
SYMATTR InstName C1
SYMATTR Value 10µ
SYMATTR SpiceLine Rser=0.15
SYMBOL res 736 -272 R0
SYMATTR InstName R8
SYMATTR Value 1
SYMBOL ind2 288 -304 R270
WINDOW 0 32 56 VTop 2
WINDOW 3 5 56 VBottom 2
SYMATTR InstName L1
SYMATTR Value 50µ
SYMATTR Type ind
SYMATTR SpiceLine Rser=0.05
SYMBOL voltage -176 160 M0
WINDOW 123 0 0 Left 0
WINDOW 39 0 0 Left 0
WINDOW 3 -391 85 Left 2
WINDOW 0 -96 54 Left 2
SYMATTR Value PULSE(0 10 0 4.8u 0.2u 0 5u)
SYMATTR InstName Vsw
SYMBOL voltage -304 160 M0
WINDOW 123 0 0 Left 0
WINDOW 39 0 0 Left 0
WINDOW 0 38 41 Left 2
WINDOW 3 48 70 Left 2
SYMATTR InstName Vduty
SYMATTR Value 5.4
SYMBOL MyComparator -64 112 R0
WINDOW 0 13 26 Left 2
SYMATTR InstName U1
SYMBOL voltage -176 -64 R0
WINDOW 123 0 0 Left 0
WINDOW 39 0 0 Left 0
SYMATTR InstName V2
SYMATTR Value 15
SYMBOL Misc\\Epoly -176 -496 R0
WINDOW 3 12 97 Left 2
SYMATTR Value value={V(pwm)}
SYMATTR InstName Edriver
TEXT 232 -424 Left 2 !.tran 0 500u 0 0.1u uic
TEXT 464 -184 Left 2 ;ESR=0.15
TEXT 296 -272 Left 2 ;ESR=0.05
TEXT -128 272 Left 2 ;sawtooth
